ConvexEnergyFunction/Cases/case24_ieee_rtslossless.m
function mpc = case24_ieee_rtslossless
%CASE24_IEEE_RTSLOSSLESS

%% MATPOWER Case Format : Version 2
mpc.version = '2';

%%-----  Power Flow Data  -----%%
%% system MVA base
mpc.baseMVA = 100;

%% bus data
%	bus_i	type	Pd	Qd	Gs	Bs	area	Vm	Va	baseKV	zone	Vmax	Vmin
mpc.bus = [
	1	2	108	22	0	0	1	1	0	138	1	1.05	0.95;
	2	2	97	20	0	0	1	1	0	138	1	1.05	0.95;
	3	1	180	37	0	0	1	1	0	138	1	1.05	0.95;
	4	1	74	15	0	0	1	1	0	138	1	1.05	0.95;
	5	1	71	14	0	0	1	1	0	138	1	1.05	0.95;
	6	1	136	28	0	-100	2	1	0	138	1	1.05	0.95;
	7	2	125	25	0	0	2	1	0	138	1	1.05	0.95;
	8	1	171	35	0	0	2	1	0	138	1	1.05	0.95;
	9	1	175	36	0	0	1	1	0	138	1	1.05	0.95;
	10	1	195	40	0	0	2	1	0	138	1	1.05	0.95;
	11	1	0	0	0	0	3	1	0	230	1	1.05	0.95;
	12	1	0	0	0	0	3	1	0	230	1	1.05	0.95;
	13	3	265	54	0	0	3	1	0	230	1	1.05	0.95;
	14	2	194	39	0	0	3	1	0	230	1	1.05	0.95;
	15	2	317	64	0	0	4	1	0	230	1	1.05	0.95;
	16	2	100	20	0	0	4	1	0	230	1	1.05	0.95;
	17	1	0	0	0	0	4	1	0	230	1	1.05	0.95;
	18	2	333	68	0	0	4	1	0	230	1	1.05	0.95;
	19	1	181	37	0	0	3	1	0	230	1	1.05	0.95;
	20	1	128	26	0	0	3	1	0	230	1	1.05	0.95;
	21	2	0	0	0	0	4	1	0	230	1	1.05	0.95;
	22	2	0	0	0	0	4	1	0	230	1	1.05	0.95;
	23	2	0	0	0	0	3	1	0	230	1	1.05	0.95;
	24	1	0	0	0	0	4	1	0	230	1	1.05	0.95;
];

%% generator data
%	bus	Pg	Qg	Qmax	Qmin	Vg	mBase	status	Pmax	Pmin	Pc1	Pc2	Qc1min	Qc1max	Qc2min	Qc2max	ramp_agc	ramp_10	ramp_30	ramp_q	apf
mpc.gen = [
	1	10	0	10	0	1.035	100	1	20	16	0	0	0	0	0	0	0	0	0	0	0;
	1	10	0	10	0	1.035	100	1	20	16	0	0	0	0	0	0	0	0	0	0	0;
	1	76	0	30	-25	1.035	100	1	76	15.2	0	0	0	0	0	0	0	0	0	0	0;
	1	76	0	30	-25	1.035	100	1	76	15.2	0	0	0	0	0	0	0	0	0	0	0;
	2	10	0	10	0	1.035	100	1	20	16	0	0	0	0	0	0	0	0	0	0	0;
	2	10	0	10	0	1.035	100	1	20	16	0	0	0	0	0	0	0	0	0	0	0;
	2	76	0	30	-25	1.035	100	1	76	15.2	0	0	0	0	0	0	0	0	0	0	0;
	2	76	0	30	-25	1.035	100	1	76	15.2	0	0	0	0	0	0	0	0	0	0	0;
	7	80	0	60	0	1.025	100	1	100	25	0	0	0	0	0	0	0	0	0	0	0;
	7	80	0	60	0	1.025	100	1	100	25	0	0	0	0	0	0	0	0	0	0	0;
	7	80	0	60	0	1.025	100	1	100	25	0	0	0	0	0	0	0	0	0	0	0;
	13	95.1	0	80	0	1.02	100	1	197	69	0	0	0	0	0	0	0	0	0	0	0;
	13	95.1	0	80	0	1.02	100	1	197	69	0	0	0	0	0	0	0	0	0	0	0;
	13	95.1	0	80	0	1.02	100	1	197	69	0	0	0	0	0	0	0	0	0	0	0;
	14	0	35.3	200	-50	0.98	100	1	0	0	0	0	0	0	0	0	0	0	0	0	0;
	15	12	0	6	0	1.014	100	1	12	2.4	0	0	0	0	0	0	0	0	0	0	0;
	15	12	0	6	0	1.014	100	1	12	2.4	0	0	0	0	0	0	0	0	0	0	0;
	15	12	0	6	0	1.014	100	1	12	2.4	0	0	0	0	0	0	0	0	0	0	0;
	15	12	0	6	0	1.014	100	1	12	2.4	0	0	0	0	0	0	0	0	0	0	0;
	15	12	0	6	0	1.014	100	1	12	2.4	0	0	0	0	0	0	0	0	0	0	0;
	15	155	0	80	-50	1.014	100	1	155	54.3	0	0	0	0	0	0	0	0	0	0	0;
	16	155	0	80	-50	1.017	100	1	155	54.3	0	0	0	0	0	0	0	0	0	0	0;
	18	400	0	200	-50	1.05	100	1	400	100	0	0	0	0	0	0	0	0	0	0	0;
	21	400	0	200	-50	1.05	100	1	400	100	0	0	0	0	0	0	0	0	0	0	0;
	22	50	0	16	-10	1.05	100	1	50	10	0	0	0	0	0	0	0	0	0	0	0;
	22	50	0	16	-10	1.05	100	1	50	10	0	0	0	0	0	0	0	0	0	0	0;
	22	50	0	16	-10	1.05	100	1	50	10	0	0	0	0	0	0	0	0	0	0	0;
	22	50	0	16	-10	1.05	100	1	50	10	0	0	0	0	0	0	0	0	0	0	0;
	22	50	0	16	-10	1.05	100	1	50	10	0	0	0	0	0	0	0	0	0	0	0;
	22	50	0	16	-10	1.05	100	1	50	10	0	0	0	0	0	0	0	0	0	0	0;
	23	155	0	80	-50	1.05	100	1	155	54.3	0	0	0	0	0	0	0	0	0	0	0;
	23	155	0	80	-50	1.05	100	1	155	54.3	0	0	0	0	0	0	0	0	0	0	0;
	23	350	0	150	-25	1.05	100	1	350	140	0	0	0	0	0	0	0	0	0	0	0;
];

%% branch data
%	fbus	tbus	r	x	b	rateA	rateB	rateC	ratio	angle	status	angmin	angmax
mpc.branch = [
	1	2	0	0.0143863309	0	175	250	200	0	0	1	-360	360;
	1	3	0	0.225315341	0	175	208	220	0	0	1	-360	360;
	1	5	0	0.090124142	0	175	208	220	0	0	1	-360	360;
	2	4	0	0.135191239	0	175	208	220	0	0	1	-360	360;
	2	6	0	0.204865052	0	175	208	220	0	0	1	-360	360;
	3	9	0	0.126971765	0	175	208	220	0	0	1	-360	360;
	3	24	0	0.0864819428	0	400	510	600	1.03	0	1	-360	360;
	4	9	0	0.110626133	0	175	208	220	0	0	1	-360	360;
	5	10	0	0.0941872027	0	175	208	220	0	0	1	-360	360;
	6	10	0	0.0636935537	0	175	193	200	0	0	1	-360	360;
	7	8	0	0.0655174267	0	175	208	220	0	0	1	-360	360;
	8	9	0	0.176143549	0	175	208	220	0	0	1	-360	360;
	8	10	0	0.176143549	0	175	208	220	0	0	1	-360	360;
	9	11	0	0.0864819428	0	400	510	600	1.03	0	1	-360	360;
	9	12	0	0.0864819428	0	400	510	600	1.03	0	1	-360	360;
	10	11	0	0.0856423123	0	400	510	600	1.02	0	1	-360	360;
	10	12	0	0.0856423123	0	400	510	600	1.02	0	1	-360	360;
	11	13	0	0.0483817227	0	500	600	625	0	0	1	-360	360;
	11	14	0	0.0424976077	0	500	625	625	0	0	1	-360	360;
	12	13	0	0.0483817227	0	500	625	625	0	0	1	-360	360;
	12	23	0	0.0981917184	0	500	625	625	0	0	1	-360	360;
	13	23	0	0.0879243931	0	500	625	625	0	0	1	-360	360;
	14	16	0	0.0395426735	0	500	625	625	0	0	1	-360	360;
	15	16	0	0.0175797688	0	500	600	625	0	0	1	-360	360;
	15	21	0	0.024905	0	500	600	625	0	0	1	-360	360;
	15	21	0	0.024905	0	500	600	625	0	0	1	-360	360;
	15	24	0	0.0527649326	0	500	600	625	0	0	1	-360	360;
	16	17	0	0.0263204633	0	500	600	625	0	0	1	-360	360;
	16	19	0	0.0234896104	0	500	600	625	0	0	1	-360	360;
	17	18	0	0.014625	0	500	600	625	0	0	1	-360	360;
	17	22	0	0.107030769	0	500	600	625	0	0	1	-360	360;
	18	21	0	0.0131602317	0	500	600	625	0	0	1	-360	360;
	18	21	0	0.0131602317	0	500	600	625	0	0	1	-360	360;
	19	20	0	0.0201284091	0	500	600	625	0	0	1	-360	360;
	19	20	0	0.0201284091	0	500	600	625	0	0	1	-360	360;
	20	23	0	0.0109814815	0	500	600	625	0	0	1	-360	360;
	20	23	0	0.0109814815	0	500	600	625	0	0	1	-360	360;
	21	22	0	0.0689163717	0	500	600	625	0	0	1	-360	360;
];

%%-----  OPF Data  -----%%
%% area data
%	area	refbus
mpc.areas = [
	1	1;
	2	3;
	3	8;
	4	6;
];

%% generator cost data
%	1	startup	shutdown	n	x1	y1	...	xn	yn
%	2	startup	shutdown	n	c(n-1)	...	c0
mpc.gencost = [
	2	1500	0	3	0	130	400.6849;
	2	1500	0	3	0	130	400.6849;
	2	1500	0	3	0.014142	16.0811	212.3076;
	2	1500	0	3	0.014142	16.0811	212.3076;
	2	1500	0	3	0	130	400.6849;
	2	1500	0	3	0	130	400.6849;
	2	1500	0	3	0.014142	16.0811	212.3076;
	2	1500	0	3	0.014142	16.0811	212.3076;
	2	1500	0	3	0.052672	43.6615	781.521;
	2	1500	0	3	0.052672	43.6615	781.521;
	2	1500	0	3	0.052672	43.6615	781.521;
	2	1500	0	3	0.00717	48.5804	832.7575;
	2	1500	0	3	0.00717	48.5804	832.7575;
	2	1500	0	3	0.00717	48.5804	832.7575;
	2	1500	0	3	0	0	0;
	2	1500	0	3	0.328412	56.564	86.3852;
	2	1500	0	3	0.328412	56.564	86.3852;
	2	1500	0	3	0.328412	56.564	86.3852;
	2	1500	0	3	0.328412	56.564	86.3852;
	2	1500	0	3	0.328412	56.564	86.3852;
	2	1500	0	3	0.008342	12.3883	382.2391;
	2	1500	0	3	0.008342	12.3883	382.2391;
	2	1500	0	3	0.000213	4.4231	395.3749;
	2	1500	0	3	0.000213	4.4231	395.3749;
	2	1500	0	3	0	0.001	0.001;
	2	1500	0	3	0	0.001	0.001;
	2	1500	0	3	0	0.001	0.001;
	2	1500	0	3	0	0.001	0.001;
	2	1500	0	3	0	0.001	0.001;
	2	1500	0	3	0	0.001	0.001;
	2	1500	0	3	0.008342	12.3883	382.2391;
	2	1500	0	3	0.008342	12.3883	382.2391;
	2	1500	0	3	0.004895	11.8495	665.1094;
];
